LTspice 24.1.10 for Windows
Circuit: C:\Users\Ashton\Dev\ECE445L\lab-7-and-10-project-nnat\hw\Filters.net
Start Time: Tue Nov  4 03:18:34 2025
solver = Normal
Maximum thread count: 8
tnom = 27
temp = 27
method = modified trap
Instance "m1:M1": Width narrower than recommended for a level 3 MOSFET.
Instance "m2:M1": Width narrower than recommended for a level 3 MOSFET.
Instance "m3:M1": Width narrower than recommended for a level 3 MOSFET.
Instance "m4:M1": Width narrower than recommended for a level 3 MOSFET.
Instance "m5:M1": Width narrower than recommended for a level 3 MOSFET.
Instance "m6:M1": Width narrower than recommended for a level 3 MOSFET.
Direct Newton iteration failed to find .op point.  (Use ".option noopiter" to skip.)
Starting Gmin stepping
Gmin = 10
Gmin = 1.07374
Gmin = 0.115292
Gmin = 0.0123794
Gmin = 0.00132923
vernier = 0.5
Gmin = 0.000223007
vernier = 0.25
vernier = 0.125
vernier = 0.0625
vernier = 0.03125
Gmin = 0.00020666
vernier = 0.015625
vernier = 0.0078125
vernier = 0.00390625
Gmin = 0.000205654
vernier = 0.00520833
vernier = 0.00694444
Gmin = 0.000202952
vernier = 0.00925925
Gmin = 0.000198772
vernier = 0.0123457
vernier = 0.0164609
Gmin = 0.000191951
vernier = 0.0219478
vernier = 0.0292638
Gmin = 0.000181565
vernier = 0.0390184
Gmin = 0.00016637
vernier = 0.0520245
vernier = 0.0693659
vernier = 0.034683
Gmin = 0.000148754
vernier = 0.0173415
vernier = 0.00867074
Gmin = 0.000145573
vernier = 0.011561
vernier = 0.0154146
Gmin = 0.000141126
vernier = 0.0205529
vernier = 0.0274038
Gmin = 0.000134362
vernier = 0.0365384
Gmin = 0.000124081
vernier = 0.0487178
vernier = 0.0649571
Gmin = 0.000108949
vernier = 0.0866095
vernier = 0.115479
Gmin = 8.87269e-05
vernier = 0.0577396
vernier = 0.0288698
vernier = 0.0144349
vernier = 0.00721745
Gmin = 9.01458e-05
vernier = 0.00360873
vernier = 0.00180436
vernier = 0.00240582
Gmin = 8.98887e-05
vernier = 0.00320776
Gmin = 8.92604e-05
vernier = 0.00427701
vernier = 0.00570267
Gmin = 8.82408e-05
vernier = 0.00760356
vernier = 0.0101381
Gmin = 8.66494e-05
vernier = 0.0135174
Gmin = 8.41285e-05
vernier = 0.0180232
vernier = 0.00901162
vernier = 0.00450581
Gmin = 8.22582e-05
vernier = 0.00225291
vernier = 0.00300387
Gmin = 8.18731e-05
vernier = 0.00400516
vernier = 0.00534022
Gmin = 8.10443e-05
vernier = 0.00712029
Gmin = 7.97573e-05
vernier = 0.00949371
vernier = 0.0126583
Gmin = 7.76434e-05
vernier = 0.0168777
vernier = 0.0225036
Gmin = 7.43902e-05
vernier = 0.0300048
Gmin = 6.95499e-05
vernier = 0.0400064
vernier = 0.0533418
Gmin = 6.21371e-05
vernier = 0.0711224
vernier = 0.0948299
Gmin = 5.19479e-05
vernier = 0.0474149
vernier = 0.0237075
Gmin = 4.72922e-05
vernier = 0.0118537
vernier = 0.00592687
vernier = 0.00296343
Gmin = 4.72567e-05
vernier = 0.00395124
vernier = 0.00526832
Gmin = 4.67847e-05
vernier = 0.00702443
Gmin = 4.60517e-05
vernier = 0.0093659
vernier = 0.0124879
Gmin = 4.48473e-05
vernier = 0.0166505
vernier = 0.0222006
Gmin = 4.29929e-05
vernier = 0.0296009
Gmin = 4.02318e-05
vernier = 0.0394678
vernier = 0.0526237
Gmin = 3.59981e-05
vernier = 0.0701649
vernier = 0.0935532
Gmin = 3.01671e-05
vernier = 0.124738
Gmin = 2.28746e-05
vernier = 0.166317
vernier = 0.221756
Gmin = 1.44367e-05
vernier = 0.295674
vernier = 0.147837
vernier = 0.0739185
vernier = 0.0369593
Gmin = 1.26083e-05
vernier = 0.0184796
vernier = 0.00923982
vernier = 0.00461991
vernier = 0.00230995
Gmin = 1.25719e-05
vernier = 0.00115498
vernier = 0.000577488
vernier = 0.000433116
Gmin = 0
Gmin = 0
Gmin stepping failed

Starting source stepping with srcstepmethod=0
Source Step = 3.0303%
vernier = 0.25
Source Step = 0.520833%
Source Step = 0.994318%
Source Step = 1.4678%
Source Step = 1.94129%
Source Step = 2.41477%
vernier = 0.0234375
Source Step = 3.0303%
Source Step = 3.74053%
Source Step = 4.45076%
Source Step = 5.16098%
Source Step = 5.87121%
Source Step = 5.97331%
Source Step = 6.0177%
Source Step = 6.06209%
Source Step = 6.10647%
Source Step = 6.15086%
Source Step = 6.19525%
vernier = 0.00219727
Source Step = 6.26184%
Source Step = 6.32842%
Source Step = 6.395%
Source Step = 6.46159%
Source Step = 6.52817%
vernier = 0.0032959
Source Step = 6.62472%
Source Step = 6.72459%
Source Step = 6.82447%
Source Step = 6.92435%
Source Step = 7.02422%
vernier = 0.00494385
Source Step = 7.16405%
Source Step = 7.31386%
Source Step = 7.46367%
Source Step = 7.61349%
Source Step = 7.7633%
vernier = 0.00741577
Source Step = 7.96555%
Source Step = 8.19027%
Source Step = 8.41499%
Source Step = 8.63971%
Source Step = 8.86443%
vernier = 0.0111237
Source Step = 9.15657%
Source Step = 9.49365%
Source Step = 9.83073%
Source Step = 10.1678%
Source Step = 10.5049%
vernier = 0.0166855
Source Step = 10.9262%
Source Step = 11.4319%
Source Step = 11.9375%
Source Step = 12.4431%
Source Step = 12.9487%
vernier = 0.0250282
Source Step = 13.5555%
Source Step = 14.3139%
Source Step = 15.0723%
Source Step = 15.8308%
Source Step = 16.5892%
vernier = 0.0375423
Source Step = 17.4614%
Source Step = 18.599%
Source Step = 19.7367%
Source Step = 20.8743%
Source Step = 22.012%
vernier = 0.0563135
Source Step = 23.2634%
Source Step = 24.9699%
Source Step = 26.6763%
Source Step = 28.3828%
Source Step = 30.0893%
vernier = 0.0844703
Source Step = 31.8811%
Source Step = 34.4408%
Source Step = 37.0005%
Source Step = 39.5602%
Source Step = 42.1199%
Source Step = 44.6796%
vernier = 0.126705
Source Step = 48.5191%
Source Step = 52.3587%
Source Step = 56.1983%
Source Step = 60.0378%
Source Step = 63.8774%
vernier = 0.190058
Source Step = 69.4447%
Source Step = 75.2041%
Source Step = 80.9634%
Source Step = 86.7227%
Source Step = 92.4821%
vernier = 0.0475145
Source Step = 91.9781%
Source Step = 92.0681%
Source Step = 92.1581%
Source Step = 92.2481%
Source Step = 92.3381%
Source Step = 92.4281%
Source Step = 92.5181%
Source Step = 92.6081%
Source Step = 92.6981%
Source Step = 92.788%
Source Step = 92.878%
Source Step = 92.968%
Source Step = 93.058%
Source Step = 93.148%
Source Step = 93.238%
Source Step = 93.328%
Source Step = 93.418%
Source Step = 93.508%
Source Step = 93.598%
Source Step = 93.6879%
Source Step = 93.7779%
Source Step = 93.8679%
Source Step = 93.9579%
Source Step = 94.0479%
Source Step = 94.1379%
Source Step = 94.2279%
Source Step = 94.3179%
Source Step = 94.4079%
Source Step = 94.4979%
Source Step = 94.5878%
Source Step = 94.6778%
Source Step = 94.7678%
Source Step = 94.8578%
Source Step = 94.9478%
Source Step = 95.0378%
Source Step = 95.1278%
Source Step = 95.2178%
Source Step = 95.3078%
Source Step = 95.3977%
vernier = 0.00445449
Source Step = 95.5192%
Source Step = 95.6542%
Source Step = 95.7892%
Source Step = 95.9242%
Source Step = 96.0592%
vernier = 0.00668173
Source Step = 96.2347%
Source Step = 96.4371%
Source Step = 96.6396%
Source Step = 96.8421%
Source Step = 97.0446%
vernier = 0.0100226
Source Step = 97.2977%
Source Step = 97.6014%
Source Step = 97.9051%
Source Step = 98.2088%
Source Step = 98.5125%
vernier = 0.0150339
Source Step = 98.877%
Source Step = 99.3325%
Source Step = 99.7881%
Source stepping succeeded in finding the operating point.

Total elapsed time: 41.593 seconds.

Files loaded:
C:\Users\Ashton\Dev\ECE445L\lab-7-and-10-project-nnat\hw\Filters.net

