Circuit: * C:\Users\ashto\Dev\ECE445L\lab-7-and-10-project-nnat\hw\FiltersBasic.asc

Direct Newton iteration for .op point succeeded.

Date: Mon Oct 20 00:04:24 2025
Total elapsed time: 0.096 seconds.

tnom = 27
temp = 27
method = trap
totiter = 3
traniter = 0
tranpoints = 0
accept = 0
rejected = 0
matrix size = 27
fillins = 18
solver = Normal
Avg thread counts: 16.0/0.0/16.0/5.4
Matrix Compiler1:     117 opcodes
Matrix Compiler2: 2.79 KB object code size
