Circuit: * C:\Users\ashto\Dev\ECE445L\lab-7-and-10-project-nnat\hw\Filters.asc

Direct Newton iteration for .op point succeeded.

Date: Mon Oct 20 15:42:10 2025
Total elapsed time: 0.208 seconds.

tnom = 27
temp = 27
method = trap
totiter = 5
traniter = 0
tranpoints = 0
accept = 0
rejected = 0
matrix size = 854
fillins = 1301
solver = Normal
Avg thread counts: 16.0/0.0/16.0/11.5
Matrix Compiler1:    6899 opcodes
Matrix Compiler2: 94.62 KB object code size
