Circuit: * C:\Users\ashto\Dev\ECE445L\lab-7-and-10-project-nnat\hw\Filters.asc

Direct Newton iteration for .op point succeeded.

Date: Sat Oct 25 22:40:44 2025
Total elapsed time: 0.134 seconds.

tnom = 27
temp = 27
method = trap
totiter = 6
traniter = 0
tranpoints = 0
accept = 0
rejected = 0
matrix size = 977
fillins = 1385
solver = Normal
Avg thread counts: 16.0/0.0/16.0/11.5
Matrix Compiler1:    7164 opcodes
Matrix Compiler2: 106.66 KB object code size
