Circuit: * C:\Users\ashto\Dev\ECE445L\lab-7-and-10-project-nnat\hw\FiltersACSum.asc

Direct Newton iteration failed to find .op point.  (Use ".option noopiter" to skip.)
Starting Gmin stepping
Gmin = 10
Gmin = 1.07374
Gmin = 0.115292
Gmin = 0.0123794
Gmin = 0.00132923
vernier = 0.5
Gmin = 0.000247786
vernier = 0.25
vernier = 0.125
vernier = 0.0625
vernier = 0.03125
Gmin = 0.000243959
vernier = 0.015625
vernier = 0.0078125
vernier = 0.0104167
Gmin = 0.000242215
vernier = 0.0138889
Gmin = 0.000234775
vernier = 0.0185185
vernier = 0.0246913
Gmin = 0.000222805
vernier = 0.0329218
vernier = 0.0438957
Gmin = 0.000204994
vernier = 0.0585276
Gmin = 0.000179858
vernier = 0.0780367
vernier = 0.104049
Gmin = 0.000144535
vernier = 0.138732
vernier = 0.0693659
vernier = 0.034683
vernier = 0.0173415
Gmin = 0.000130435
vernier = 0.00867074
vernier = 0.00433537
vernier = 0.00216769
Gmin = 0.000130153
vernier = 0.00289025
vernier = 0.00385366
Gmin = 0.000129146
vernier = 0.00513821
vernier = 0.00685095
Gmin = 0.000127567
vernier = 0.0091346
Gmin = 0.000125046
vernier = 0.0121795
vernier = 0.0162393
Gmin = 0.000121026
vernier = 0.0216524
vernier = 0.0288698
Gmin = 0.000114923
vernier = 0.0384931
Gmin = 0.00010568
vernier = 0.0513241
vernier = 0.025662
vernier = 0.012831
vernier = 0.00641551
vernier = 0.00320776
Gmin = 0.000103347
vernier = 0.00160388
vernier = 0.0021385
Gmin = 0.000102947
vernier = 0.00285134
Gmin = 0.000102289
vernier = 0.00380178
vernier = 0.00190089
vernier = 0.00253452
Gmin = 0.000101821
vernier = 0.00337936
Gmin = 0.00010105
vernier = 0.00450581
vernier = 0.00600775
Gmin = 9.97686e-05
vernier = 0.00801033
vernier = 0.0106804
Gmin = 9.776e-05
vernier = 0.0142406
Gmin = 9.46822e-05
vernier = 0.0189874
vernier = 0.0253166
Gmin = 8.97363e-05
vernier = 0.0337554
vernier = 0.0450072
Gmin = 8.23896e-05
vernier = 0.0600096
Gmin = 7.20498e-05
vernier = 0.0800128
vernier = 0.106684
Gmin = 5.75835e-05
vernier = 0.142245
vernier = 0.18966
Gmin = 4.03779e-05
vernier = 0.25288
Gmin = 2.32236e-05
vernier = 0.337173
vernier = 0.449564
vernier = 0.224782
vernier = 0.112391
vernier = 0.0561954
Gmin = 1.42906e-05
vernier = 0.0749272
Gmin = 1.21466e-05
vernier = 0.099903
vernier = 0.133204
Gmin = 9.32039e-06
vernier = 0.177605
vernier = 0.236807
Gmin = 6.14569e-06
vernier = 0.315742
Gmin = 3.15282e-06
vernier = 0.42099
vernier = 0.210495
vernier = 0.105247
Gmin = 1.90804e-06
vernier = 0.0526237
vernier = 0.0263119
vernier = 0.0131559
vernier = 0.00657796
vernier = 0.00328898
Gmin = 1.8349e-06
vernier = 0.00164449
vernier = 0.000822246
vernier = 0.000411123
Gmin = 0
Gmin stepping failed

Starting source stepping with srcstepmethod=0
Source Step = 3.0303%
vernier = 0.25
Source Step = 1.70455%
Source Step = 3.59848%
Source Step = 5.49242%
Source Step = 7.38636%
vernier = 0.015625
Source Step = 7.22064%
Source Step = 7.25024%
Source Step = 7.27983%
Source Step = 7.30942%
Source Step = 7.33902%
vernier = 0.00146484
Source Step = 7.37897%
Source Step = 7.42335%
Source Step = 7.46774%
Source Step = 7.51213%
Source Step = 7.55652%
vernier = 0.00219727
Source Step = 7.61423%
Source Step = 7.68081%
Source Step = 7.7474%
Source Step = 7.81398%
Source Step = 7.88056%
Source Step = 7.94715%
Source Step = 8.01373%
Source Step = 8.08031%
vernier = 0.0032959
Source Step = 8.15689%
Source Step = 8.25676%
Source Step = 8.35664%
Source Step = 8.45651%
Source Step = 8.55639%
vernier = 0.00494385
Source Step = 8.66625%
Source Step = 8.81607%
Source Step = 8.96588%
Source Step = 9.11569%
Source Step = 9.26551%
vernier = 0.00741577
Source Step = 9.42281%
Source Step = 9.64753%
Source Step = 9.87225%
Source Step = 10.097%
Source Step = 10.3217%
Source Step = 10.5464%
vernier = 0.0111237
Source Step = 10.8835%
Source Step = 11.2206%
Source Step = 11.5577%
Source Step = 11.8947%
Source Step = 12.2318%
vernier = 0.0166855
Source Step = 12.7206%
Source Step = 13.2262%
Source Step = 13.7318%
Source Step = 14.2374%
Source Step = 14.7431%
vernier = 0.0250282
Source Step = 15.4509%
Source Step = 16.2094%
Source Step = 16.9678%
Source Step = 17.7262%
Source Step = 18.4847%
vernier = 0.0375423
Source Step = 19.5085%
Source Step = 20.6462%
Source Step = 21.7838%
Source Step = 22.9215%
Source Step = 24.0591%
vernier = 0.0563135
Source Step = 25.5381%
Source Step = 27.2445%
Source Step = 28.951%
Source Step = 30.6575%
Source Step = 32.3639%
vernier = 0.0844703
Source Step = 34.497%
Source Step = 37.0567%
Source Step = 39.6164%
Source Step = 42.1762%
Source Step = 44.7359%
vernier = 0.126705
Source Step = 47.8075%
Source Step = 51.6471%
Source Step = 55.4866%
Source Step = 59.3262%
Source Step = 63.1657%
vernier = 0.190058
Source Step = 67.5812%
Source Step = 73.3406%
Source Step = 79.0999%
Source Step = 84.8592%
Source Step = 90.6186%
Source Step = 91.2485%
Starting source stepping with srcstepmethod=1
Source Step = 3.0303%
Source Step = 33.3333%
Source Step = 63.6364%
Source Step = 86.3636%
Source Step = 87.5621%
Source stepping failed

Pseudo Transient failed in finding the operating point at 347.372 ms.
Fatal Error: Failed to find DC operating point for AC analysis.
