Circuit: * C:\Users\ashto\Dev\ECE445L\lab-7-and-10-project-nnat\hw\Filters.asc

Error on line 42 : v3 n001 0 v
	 Unknown parameter "v"
Error on line 46 : m2 n006 on n008 n008 bss138
	 Unable to find definition of model ""
WARNING: Less than two connections to node nc_01.  This node is used by r24.
Instance "m:m1:1": Width narrower than recommended for a level 3 MOSFET.
v3: Missing value, assumed 0V @ DC
Direct Newton iteration for .op point succeeded.

Date: Sat Nov  1 20:16:30 2025
Total elapsed time: 2.623 seconds.

tnom = 27
temp = 27
method = trap
totiter = 26
traniter = 0
tranpoints = 0
accept = 0
rejected = 0
matrix size = 997
fillins = 1396
solver = Normal
Avg thread counts: 16.0/0.0/16.0/4.9
Matrix Compiler1:    7278 opcodes
Matrix Compiler2: 108.60 KB object code size
