LTspice 24.1.10 for Windows
Circuit: C:\Users\Ashton\Dev\ECE445L\lab-7-and-10-project-nnat\hw\VariableGain.net
Start Time: Tue Nov  4 01:47:47 2025
solver = Normal
Maximum thread count: 8
tnom = 27
temp = 27
method = modified trap
Direct Newton iteration for .op point succeeded.
Total elapsed time: 0.205 seconds.

Files loaded:
C:\Users\Ashton\Dev\ECE445L\lab-7-and-10-project-nnat\hw\VariableGain.net

